[General]
network = Project
record-eventlog = true
repeat = 10
seed-set = ${repetition}

[Config prova1]
sim-time-limit = 20s 						
**.client.isConstant = true	
**.client.IATmean = 10

**.server.constantServTime = true
**.server.servTimeMean = 1
**.server.vacationMean = 5


